* DIODES INCORPORATED AND ITS AFFILIATED COMPANIES AND SUBSIDIARIES (COLLECTIVELY, "DIODES") 
* PROVIDE THESE SPICE MODELS AND DATA (COLLECTIVELY, THE "SM DATA") "AS IS" AND WITHOUT ANY 
* REPRESENTATIONS OR WARRANTIES, EXPRESS OR IMPLIED, INCLUDING ANY WARRANTY OF MERCHANTABILITY 
* OR FITNESS FOR A PARTICULAR PURPOSE, ANY WARRANTY ARISING FROM COURSE OF DEALING OR COURSE OF 
* PERFORMANCE, OR ANY WARRANTY THAT ACCESS TO OR OPERATION OF THE SM DATA WILL BE UNINTERRUPTED, 
* OR THAT THE SM DATA OR ANY SIMULATION USING THE SM DATA WILL BE ERROR FREE. TO THE MAXIMUM 
* EXTENT PERMITTED BY LAW, IN NO EVENT WILL DIODES BE LIABLE FOR ANY DIRECT OR INDIRECT, 
* SPECIAL, INCIDENTAL, PUNITIVE OR CONSEQUENTIAL DAMAGES ARISING OUT OF OR IN CONNECTION WITH 
* THE PRODUCTION OR USE OF SM DATA, HOWEVER CAUSED AND UNDER WHATEVER CAUSE OF ACTION OR THEORY 
* OF LIABILITY BROUGHT (INCLUDING, WITHOUT LIMITATION, UNDER ANY CONTRACT, NEGLIGENCE OR OTHER 
* TORT THEORY OF LIABILITY), EVEN IF DIODES HAS BEEN ADVISED OF THE POSSIBILITY OF SUCH DAMAGES, 
* AND DIODES' TOTAL LIABILITY (WHETHER IN CONTRACT, TORT OR OTHERWISE) WITH REGARD TO THE SM 
* DATA WILL NOT, IN THE AGGREGATE, EXCEED ANY SUMS PAID BY YOU TO DIODES FOR THE SM DATA.

*SRC=DMMT3906W;DI_DMMT3906W;BJTs PNP; Si;  40.0V  0.200A  257MHz   Diodes, Inc. PNP

.SUBCKT DMMT3906W 1 2 3
Q1 1 2 3 MAIN
*
.MODEL MAIN  PNP
+ IS=20.3f
+ NF=1.00
+ BF=274
+ VAF=114 
+ IKF=36.4m
+ ISE=6.99p
+ NE=2.00
+ BR=4.00
+ NR=1.00 
+ VAR=20.0
+ IKR=90.0m
+ RE=1.01
+ RB=4.03
+ RC=0.403 
+ XTB=1.5
+ CJE=12.1p
+ VJE=1.10
+ MJE=0.500
+ CJC=10.7p
+ VJC=0.300 
+ MJC=0.300
+ TF=531p
+ TR=85.6n
+ EG=1.12
.ENDS
*